IEEE 39-bus System and a 3-terminal HVDC Grid/Output/ac_Equivalent_MTdcConverters_scaleLoad.epc
title
ENGLAND 39 BUS SYSTEM
LOAD LEVEL
!
comments
!
solution parameters
tap    0    tcul  enabled/disabled
phas   1    ps    enabled/disabled
area   0    area  enabled/disabled
svd    1    svd   enabled/disabled
dctap  1    dc    enabled/disabled
gcd    0    gcd   enabled/disabled
jump  0.000200    jumper threshold
toler   1.0000    newton tolerance
sbase 100.0000    system mva base
!
bus data  [39]               ty  vsched   volt     angle    ar zone  vmax   vmin   date_in date_out pid L own st  latitude  longitude island    sdmon   vmax1      vmin1      dvmax subst
      1 "LBUS01      " 345.0000 " "  0  :  2 1.048870 1.048870  -22.672728    1    1 1.1000 0.9000 19400101 21991231   0 0   1 0   0.000000   0.000000     0 0    1.10000    0.90000    0.00000 -1 " "     1 -1 " "  0  " " 
      2 "LBUS02      " 345.0000 " "  0  :  1 1.042402 1.042862  -10.357094    1    1 1.1000 0.9000 19400101 21991231   0 0   1 0   0.000000   0.000000     0 0    1.10000    0.90000    0.00000 -1 " "     1 -1 " "  0  " " 
      3 "LBUS03      " 345.0000 " "  0  :  1 1.025146 1.025639  -10.782103    1    1 1.1000 0.9000 19400101 21991231   0 0   1 0   0.000000   0.000000     0 0    1.10000    0.90000    0.00000 -1 " "     1 -1 " "  0  " " 
      4 "LBUS04      " 345.0000 " "  0  :  1 0.998347 0.998464  -10.750222    1    1 1.1000 0.9000 19400101 21991231   0 0   1 0   0.000000   0.000000     0 0    1.10000    0.90000    0.00000 -1 " "     1 -1 " "  0  " " 
      5 "LBUS05      " 345.0000 " "  0  :  1 0.999516 0.999143  -10.116391    1    1 1.1000 0.9000 19400101 21991231   0 0   1 0   0.000000   0.000000     0 0    1.10000    0.90000    0.00000 -1 " "     1 -1 " "  0  " " 
      6 "LBUS06      " 345.0000 " "  0  :  1 1.002084 1.001675  -9.358920    1    1 1.1000 0.9000 19400101 21991231   0 0   1 0   0.000000   0.000000     0 0    1.10000    0.90000    0.00000 -1 " "     1 -1 " "  0  " " 
      7 "LBUS07      " 345.0000 " "  0  :  1 0.990632 0.990179  -12.090310    1    1 1.1000 0.9000 19400101 21991231   0 0   1 0   0.000000   0.000000     0 0    1.10000    0.90000    0.00000 -1 " "     1 -1 " "  0  " " 
      8 "LBUS08      " 345.0000 " "  0  :  1 0.989432 0.988977  -12.856710    1    1 1.1000 0.9000 19400101 21991231   0 0   1 0   0.000000   0.000000     0 0    1.10000    0.90000    0.00000 -1 " "     1 -1 " "  0  " " 
      9 "LBUS09      " 345.0000 " "  0  :  1 1.023376 1.023017  -16.852201    1    1 1.1000 0.9000 19400101 21991231   0 0   1 0   0.000000   0.000000     0 0    1.10000    0.90000    0.00000 -1 " "     1 -1 " "  0  " " 
     10 "LBUS10      " 345.0000 " "  0  :  1 1.013116 1.013113  -6.327147    1    1 1.1000 0.9000 19400101 21991231   0 0   1 0   0.000000   0.000000     0 0    1.10000    0.90000    0.00000 -1 " "     1 -1 " "  0  " " 
     11 "LBUS11      " 345.0000 " "  0  :  1 1.007970 1.007896  -7.344640    1    1 1.1000 0.9000 19400101 21991231   0 0   1 0   0.000000   0.000000     0 0    1.10000    0.90000    0.00000 -1 " "     1 -1 " "  0  " " 
     12 "LBUS12      " 154.0000 " "  0  :  1 0.995590 0.995586  -7.112041    1    1 1.1000 0.9000 19400101 21991231   0 0   1 0   0.000000   0.000000     0 0    1.10000    0.90000    0.00000 -1 " "     1 -1 " "  0  " " 
     13 "LBUS13      " 345.0000 " "  0  :  1 1.010179 1.010228  -6.773699    1    1 1.1000 0.9000 19400101 21991231   0 0   1 0   0.000000   0.000000     0 0    1.10000    0.90000    0.00000 -1 " "     1 -1 " "  0  " " 
     14 "LBUS14      " 345.0000 " "  0  :  1 1.007093 1.007358  -7.760253    1    1 1.1000 0.9000 19400101 21991231   0 0   1 0   0.000000   0.000000     0 0    1.10000    0.90000    0.00000 -1 " "     1 -1 " "  0  " " 
     15 "LBUS15      " 345.0000 " "  0  :  2 1.014710 1.014710  -4.902511    1    1 1.1000 0.9000 19400101 21991231   0 0   1 0   0.000000   0.000000     0 0    1.10000    0.90000    0.00000 -1 " "     1 -1 " "  0  " " 
     16 "LBUS16      " 345.0000 " "  0  :  1 1.031085 1.031238  -4.181714    1    1 1.1000 0.9000 19400101 21991231   0 0   1 0   0.000000   0.000000     0 0    1.10000    0.90000    0.00000 -1 " "     1 -1 " "  0  " " 
     17 "LBUS17      " 345.0000 " "  0  :  1 1.030587 1.031031  -6.976034    1    1 1.1000 0.9000 19400101 21991231   0 0   1 0   0.000000   0.000000     0 0    1.10000    0.90000    0.00000 -1 " "     1 -1 " "  0  " " 
     18 "LBUS18      " 345.0000 " "  0  :  1 1.026569 1.027128  -8.854787    1    1 1.1000 0.9000 19400101 21991231   0 0   1 0   0.000000   0.000000     0 0    1.10000    0.90000    0.00000 -1 " "     1 -1 " "  0  " " 
     19 "LBUS19      " 345.0000 " "  0  :  1 1.050054 1.050110  0.424467    1    1 1.1000 0.9000 19400101 21991231   0 0   1 0   0.000000   0.000000     0 0    1.10000    0.90000    0.00000 -1 " "     1 -1 " "  0  " " 
     20 "LBUS20      " 345.0000 " "  0  :  1 0.991379 0.991409  -0.704680    1    1 1.1000 0.9000 19400101 21991231   0 0   1 0   0.000000   0.000000     0 0    1.10000    0.90000    0.00000 -1 " "     1 -1 " "  0  " " 
     21 "LBUS21      " 345.0000 " "  0  :  1 1.031664 1.031763  -1.856584    1    1 1.1000 0.9000 19400101 21991231   0 0   1 0   0.000000   0.000000     0 0    1.10000    0.90000    0.00000 -1 " "     1 -1 " "  0  " " 
     22 "LBUS22      " 345.0000 " "  0  :  1 1.050135 1.050174  2.505912    1    1 1.1000 0.9000 19400101 21991231   0 0   1 0   0.000000   0.000000     0 0    1.10000    0.90000    0.00000 -1 " "     1 -1 " "  0  " " 
     23 "LBUS23      " 345.0000 " "  0  :  1 1.045481 1.045505  2.426069    1    1 1.1000 0.9000 19400101 21991231   0 0   1 0   0.000000   0.000000     0 0    1.10000    0.90000    0.00000 -1 " "     1 -1 " "  0  " " 
     24 "LBUS24      " 345.0000 " "  0  :  2 1.037810 1.037810  -3.257860    1    1 1.1000 0.9000 19400101 21991231   0 0   1 0   0.000000   0.000000     0 0    1.10000    0.90000    0.00000 -1 " "     1 -1 " "  0  " " 
     25 "LBUS25      " 345.0000 " "  0  :  1 1.058367 1.058419  -8.350614    1    1 1.1000 0.9000 19400101 21991231   0 0   1 0   0.000000   0.000000     0 0    1.10000    0.90000    0.00000 -1 " "     1 -1 " "  0  " " 
     26 "LBUS26      " 345.0000 " "  0  :  1 1.052288 1.052473  -7.503013    1    1 1.1000 0.9000 19400101 21991231   0 0   1 0   0.000000   0.000000     0 0    1.10000    0.90000    0.00000 -1 " "     1 -1 " "  0  " " 
     27 "LBUS27      " 345.0000 " "  0  :  1 1.036808 1.037109  -8.424609    1    1 1.1000 0.9000 19400101 21991231   0 0   1 0   0.000000   0.000000     0 0    1.10000    0.90000    0.00000 -1 " "     1 -1 " "  0  " " 
     28 "LBUS28      " 345.0000 " "  0  :  1 1.050566 1.050662  -4.176390    1    1 1.1000 0.9000 19400101 21991231   0 0   1 0   0.000000   0.000000     0 0    1.10000    0.90000    0.00000 -1 " "     1 -1 " "  0  " " 
     29 "LBUS29      " 345.0000 " "  0  :  1 1.050336 1.050400  -1.477819    1    1 1.1000 0.9000 19400101 21991231   0 0   1 0   0.000000   0.000000     0 0    1.10000    0.90000    0.00000 -1 " "     1 -1 " "  0  " " 
     30 "GBUS30      "  22.0000 " "  0  :  2 1.047500 1.047500  -7.719151    1    1 1.1000 0.9000 19400101 21991231   0 0   1 0   0.000000   0.000000     0 0    1.10000    0.90000    0.00000 -1 " "     1 -1 " "  0  " " 
     31 "GBUS31      "  22.0000 " "  0  :  0 0.982000 0.982000  0.000000    1    1 1.1000 0.9000 19400101 21991231   0 0   1 0   0.000000   0.000000     0 0    1.10000    0.90000    0.00000 -1 " "     1 -1 " "  0  " " 
     32 "GBUS32      "  22.0000 " "  0  :  2 0.983100 0.983100  1.328196    1    1 1.1000 0.9000 19400101 21991231   0 0   1 0   0.000000   0.000000     0 0    1.10000    0.90000    0.00000 -1 " "     1 -1 " "  0  " " 
     33 "GBUS33      "  22.0000 " "  0  :  2 0.997200 0.997200  5.333154    1    1 1.1000 0.9000 19400101 21991231   0 0   1 0   0.000000   0.000000     0 0    1.10000    0.90000    0.00000 -1 " "     1 -1 " "  0  " " 
     34 "GBUS34      "  22.0000 " "  0  :  2 1.012300 1.012300  4.305742    1    1 1.1000 0.9000 19400101 21991231   0 0   1 0   0.000000   0.000000     0 0    1.10000    0.90000    0.00000 -1 " "     1 -1 " "  0  " " 
     35 "GBUS35      "  22.0000 " "  0  :  2 1.049300 1.049300  7.198163    1    1 1.1000 0.9000 19400101 21991231   0 0   1 0   0.000000   0.000000     0 0    1.10000    0.90000    0.00000 -1 " "     1 -1 " "  0  " " 
     36 "GBUS36      "  22.0000 " "  0  :  2 1.063500 1.063500  9.963790    1    1 1.1000 0.9000 19400101 21991231   0 0   1 0   0.000000   0.000000     0 0    1.10000    0.90000    0.00000 -1 " "     1 -1 " "  0  " " 
     37 "GBUS37      "  22.0000 " "  0  :  2 1.027800 1.028439  -1.512654    1    1 1.1000 0.9000 19400101 21991231   0 0   1 0   0.000000   0.000000     0 0    1.10000    0.90000    0.00000 -1 " "     1 -1 " "  0  " " 
     38 "GBUS38      "  22.0000 " "  0  :  2 1.026500 1.026500  5.455808    1    1 1.1000 0.9000 19400101 21991231   0 0   1 0   0.000000   0.000000     0 0    1.10000    0.90000    0.00000 -1 " "     1 -1 " "  0  " " 
     39 "GBUS39      " 345.0000 " "  0  :  -2 1.030000 1.030000  -19.411688    1    1 1.1000 0.9000 19400101 21991231   0 0   1 0   0.000000   0.000000     0 0    1.10000    0.90000    0.00000 -1 " "     1 -1 " "  0  " " 
branch data  [   34]                                          ck  se  ------------long_id_------------    st resist   react   charge   rate1  rate2  rate3  rate4 aloss  lngth 
      1 "LBUS01      " 345.00       2 "LBUS02      " 345.00  "1 "   1 " "  :  1  0.003500  0.041100  0.698700    0.0    0.0    0.0    0.0 0.000    0.0 /
   1    1  0.000000  0.000000  1.000000 19400101 21991231   0 1  0    0.0    0.0    0.0    0.0   1 1.000   0 0.000   0 0.000   0 0.000   0 0.000   0 0.000   0 0.000   0 0.000  0 0  0  0  0  90.000   0.000000  0.000000  " "     0.00     0.00     0.00     0.00 
      1 "LBUS01      " 345.00      39 "GBUS39      " 345.00  "1 "   1 " "  :  1  0.001000  0.025000  0.750000    0.0    0.0    0.0    0.0 0.000    0.0 /
   1    1  0.000000  0.000000  1.000000 19400101 21991231   0 1  0    0.0    0.0    0.0    0.0   1 1.000   0 0.000   0 0.000   0 0.000   0 0.000   0 0.000   0 0.000   0 0.000  0 0  0  0  0  90.000   0.000000  0.000000  " "     0.00     0.00     0.00     0.00 
      2 "LBUS02      " 345.00       3 "LBUS03      " 345.00  "1 "   1 " "  :  1  0.001300  0.015100  0.257200    0.0    0.0    0.0    0.0 0.000    0.0 /
   1    1  0.000000  0.000000  1.000000 19400101 21991231   0 1  0    0.0    0.0    0.0    0.0   1 1.000   0 0.000   0 0.000   0 0.000   0 0.000   0 0.000   0 0.000   0 0.000  0 0  0  0  0  90.000   0.000000  0.000000  " "     0.00     0.00     0.00     0.00 
      2 "LBUS02      " 345.00      25 "LBUS25      " 345.00  "1 "   1 " "  :  1  0.007000  0.008600  0.146000    0.0    0.0    0.0    0.0 0.000    0.0 /
   1    1  0.000000  0.000000  1.000000 19400101 21991231   0 1  0    0.0    0.0    0.0    0.0   1 1.000   0 0.000   0 0.000   0 0.000   0 0.000   0 0.000   0 0.000   0 0.000  0 0  0  0  0  90.000   0.000000  0.000000  " "     0.00     0.00     0.00     0.00 
      3 "LBUS03      " 345.00       4 "LBUS04      " 345.00  "1 "   1 " "  :  1  0.001300  0.021300  0.221400    0.0    0.0    0.0    0.0 0.000    0.0 /
   1    1  0.000000  0.000000  1.000000 19400101 21991231   0 1  0    0.0    0.0    0.0    0.0   1 1.000   0 0.000   0 0.000   0 0.000   0 0.000   0 0.000   0 0.000   0 0.000  0 0  0  0  0  90.000   0.000000  0.000000  " "     0.00     0.00     0.00     0.00 
      3 "LBUS03      " 345.00      18 "LBUS18      " 345.00  "1 "   1 " "  :  1  0.001100  0.013300  0.213800    0.0    0.0    0.0    0.0 0.000    0.0 /
   1    1  0.000000  0.000000  1.000000 19400101 21991231   0 1  0    0.0    0.0    0.0    0.0   1 1.000   0 0.000   0 0.000   0 0.000   0 0.000   0 0.000   0 0.000   0 0.000  0 0  0  0  0  90.000   0.000000  0.000000  " "     0.00     0.00     0.00     0.00 
      4 "LBUS04      " 345.00       5 "LBUS05      " 345.00  "1 "   1 " "  :  1  0.000800  0.012800  0.134200    0.0    0.0    0.0    0.0 0.000    0.0 /
   1    1  0.000000  0.000000  1.000000 19400101 21991231   0 1  0    0.0    0.0    0.0    0.0   1 1.000   0 0.000   0 0.000   0 0.000   0 0.000   0 0.000   0 0.000   0 0.000  0 0  0  0  0  90.000   0.000000  0.000000  " "     0.00     0.00     0.00     0.00 
      4 "LBUS04      " 345.00      14 "LBUS14      " 345.00  "1 "   1 " "  :  1  0.000800  0.012900  0.138200    0.0    0.0    0.0    0.0 0.000    0.0 /
   1    1  0.000000  0.000000  1.000000 19400101 21991231   0 1  0    0.0    0.0    0.0    0.0   1 1.000   0 0.000   0 0.000   0 0.000   0 0.000   0 0.000   0 0.000   0 0.000  0 0  0  0  0  90.000   0.000000  0.000000  " "     0.00     0.00     0.00     0.00 
      5 "LBUS05      " 345.00       6 "LBUS06      " 345.00  "1 "   1 " "  :  1  0.000200  0.002600  0.043400    0.0    0.0    0.0    0.0 0.000    0.0 /
   1    1  0.000000  0.000000  1.000000 19400101 21991231   0 1  0    0.0    0.0    0.0    0.0   1 1.000   0 0.000   0 0.000   0 0.000   0 0.000   0 0.000   0 0.000   0 0.000  0 0  0  0  0  90.000   0.000000  0.000000  " "     0.00     0.00     0.00     0.00 
      5 "LBUS05      " 345.00       8 "LBUS08      " 345.00  "1 "   1 " "  :  1  0.000800  0.011200  0.147600    0.0    0.0    0.0    0.0 0.000    0.0 /
   1    1  0.000000  0.000000  1.000000 19400101 21991231   0 1  0    0.0    0.0    0.0    0.0   1 1.000   0 0.000   0 0.000   0 0.000   0 0.000   0 0.000   0 0.000   0 0.000  0 0  0  0  0  90.000   0.000000  0.000000  " "     0.00     0.00     0.00     0.00 
      6 "LBUS06      " 345.00       7 "LBUS07      " 345.00  "1 "   1 " "  :  1  0.000600  0.009200  0.113000    0.0    0.0    0.0    0.0 0.000    0.0 /
   1    1  0.000000  0.000000  1.000000 19400101 21991231   0 1  0    0.0    0.0    0.0    0.0   1 1.000   0 0.000   0 0.000   0 0.000   0 0.000   0 0.000   0 0.000   0 0.000  0 0  0  0  0  90.000   0.000000  0.000000  " "     0.00     0.00     0.00     0.00 
      6 "LBUS06      " 345.00      11 "LBUS11      " 345.00  "1 "   1 " "  :  1  0.000700  0.008200  0.138900    0.0    0.0    0.0    0.0 0.000    0.0 /
   1    1  0.000000  0.000000  1.000000 19400101 21991231   0 1  0    0.0    0.0    0.0    0.0   1 1.000   0 0.000   0 0.000   0 0.000   0 0.000   0 0.000   0 0.000   0 0.000  0 0  0  0  0  90.000   0.000000  0.000000  " "     0.00     0.00     0.00     0.00 
      7 "LBUS07      " 345.00       8 "LBUS08      " 345.00  "1 "   1 " "  :  1  0.000400  0.004600  0.078000    0.0    0.0    0.0    0.0 0.000    0.0 /
   1    1  0.000000  0.000000  1.000000 19400101 21991231   0 1  0    0.0    0.0    0.0    0.0   1 1.000   0 0.000   0 0.000   0 0.000   0 0.000   0 0.000   0 0.000   0 0.000  0 0  0  0  0  90.000   0.000000  0.000000  " "     0.00     0.00     0.00     0.00 
      8 "LBUS08      " 345.00       9 "LBUS09      " 345.00  "1 "   1 " "  :  1  0.002300  0.036300  0.380400    0.0    0.0    0.0    0.0 0.000    0.0 /
   1    1  0.000000  0.000000  1.000000 19400101 21991231   0 1  0    0.0    0.0    0.0    0.0   1 1.000   0 0.000   0 0.000   0 0.000   0 0.000   0 0.000   0 0.000   0 0.000  0 0  0  0  0  90.000   0.000000  0.000000  " "     0.00     0.00     0.00     0.00 
      9 "LBUS09      " 345.00      39 "GBUS39      " 345.00  "1 "   1 " "  :  1  0.001000  0.025000  1.200000    0.0    0.0    0.0    0.0 0.000    0.0 /
   1    1  0.000000  0.000000  1.000000 19400101 21991231   0 1  0    0.0    0.0    0.0    0.0   1 1.000   0 0.000   0 0.000   0 0.000   0 0.000   0 0.000   0 0.000   0 0.000  0 0  0  0  0  90.000   0.000000  0.000000  " "     0.00     0.00     0.00     0.00 
     10 "LBUS10      " 345.00      11 "LBUS11      " 345.00  "1 "   1 " "  :  1  0.000400  0.004300  0.072900    0.0    0.0    0.0    0.0 0.000    0.0 /
   1    1  0.000000  0.000000  1.000000 19400101 21991231   0 1  0    0.0    0.0    0.0    0.0   1 1.000   0 0.000   0 0.000   0 0.000   0 0.000   0 0.000   0 0.000   0 0.000  0 0  0  0  0  90.000   0.000000  0.000000  " "     0.00     0.00     0.00     0.00 
     10 "LBUS10      " 345.00      13 "LBUS13      " 345.00  "1 "   1 " "  :  1  0.000400  0.004300  0.072900    0.0    0.0    0.0    0.0 0.000    0.0 /
   1    1  0.000000  0.000000  1.000000 19400101 21991231   0 1  0    0.0    0.0    0.0    0.0   1 1.000   0 0.000   0 0.000   0 0.000   0 0.000   0 0.000   0 0.000   0 0.000  0 0  0  0  0  90.000   0.000000  0.000000  " "     0.00     0.00     0.00     0.00 
     13 "LBUS13      " 345.00      14 "LBUS14      " 345.00  "1 "   1 " "  :  1  0.000900  0.010100  0.172300    0.0    0.0    0.0    0.0 0.000    0.0 /
   1    1  0.000000  0.000000  1.000000 19400101 21991231   0 1  0    0.0    0.0    0.0    0.0   1 1.000   0 0.000   0 0.000   0 0.000   0 0.000   0 0.000   0 0.000   0 0.000  0 0  0  0  0  90.000   0.000000  0.000000  " "     0.00     0.00     0.00     0.00 
     14 "LBUS14      " 345.00      15 "LBUS15      " 345.00  "1 "   1 " "  :  1  0.001800  0.021700  0.366000    0.0    0.0    0.0    0.0 0.000    0.0 /
   1    1  0.000000  0.000000  1.000000 19400101 21991231   0 1  0    0.0    0.0    0.0    0.0   1 1.000   0 0.000   0 0.000   0 0.000   0 0.000   0 0.000   0 0.000   0 0.000  0 0  0  0  0  90.000   0.000000  0.000000  " "     0.00     0.00     0.00     0.00 
     15 "LBUS15      " 345.00      16 "LBUS16      " 345.00  "1 "   1 " "  :  1  0.000900  0.009400  0.171000    0.0    0.0    0.0    0.0 0.000    0.0 /
   1    1  0.000000  0.000000  1.000000 19400101 21991231   0 1  0    0.0    0.0    0.0    0.0   1 1.000   0 0.000   0 0.000   0 0.000   0 0.000   0 0.000   0 0.000   0 0.000  0 0  0  0  0  90.000   0.000000  0.000000  " "     0.00     0.00     0.00     0.00 
     16 "LBUS16      " 345.00      17 "LBUS17      " 345.00  "1 "   1 " "  :  1  0.000700  0.008900  0.134200    0.0    0.0    0.0    0.0 0.000    0.0 /
   1    1  0.000000  0.000000  1.000000 19400101 21991231   0 1  0    0.0    0.0    0.0    0.0   1 1.000   0 0.000   0 0.000   0 0.000   0 0.000   0 0.000   0 0.000   0 0.000  0 0  0  0  0  90.000   0.000000  0.000000  " "     0.00     0.00     0.00     0.00 
     16 "LBUS16      " 345.00      19 "LBUS19      " 345.00  "1 "   1 " "  :  1  0.001600  0.019500  0.304000    0.0    0.0    0.0    0.0 0.000    0.0 /
   1    1  0.000000  0.000000  1.000000 19400101 21991231   0 1  0    0.0    0.0    0.0    0.0   1 1.000   0 0.000   0 0.000   0 0.000   0 0.000   0 0.000   0 0.000   0 0.000  0 0  0  0  0  90.000   0.000000  0.000000  " "     0.00     0.00     0.00     0.00 
     16 "LBUS16      " 345.00      21 "LBUS21      " 345.00  "1 "   1 " "  :  1  0.000800  0.013500  0.254800    0.0    0.0    0.0    0.0 0.000    0.0 /
   1    1  0.000000  0.000000  1.000000 19400101 21991231   0 1  0    0.0    0.0    0.0    0.0   1 1.000   0 0.000   0 0.000   0 0.000   0 0.000   0 0.000   0 0.000   0 0.000  0 0  0  0  0  90.000   0.000000  0.000000  " "     0.00     0.00     0.00     0.00 
     16 "LBUS16      " 345.00      24 "LBUS24      " 345.00  "1 "   1 " "  :  1  0.000300  0.005900  0.068000    0.0    0.0    0.0    0.0 0.000    0.0 /
   1    1  0.000000  0.000000  1.000000 19400101 21991231   0 1  0    0.0    0.0    0.0    0.0   1 1.000   0 0.000   0 0.000   0 0.000   0 0.000   0 0.000   0 0.000   0 0.000  0 0  0  0  0  90.000   0.000000  0.000000  " "     0.00     0.00     0.00     0.00 
     17 "LBUS17      " 345.00      18 "LBUS18      " 345.00  "1 "   1 " "  :  1  0.000700  0.008200  0.131900    0.0    0.0    0.0    0.0 0.000    0.0 /
   1    1  0.000000  0.000000  1.000000 19400101 21991231   0 1  0    0.0    0.0    0.0    0.0   1 1.000   0 0.000   0 0.000   0 0.000   0 0.000   0 0.000   0 0.000   0 0.000  0 0  0  0  0  90.000   0.000000  0.000000  " "     0.00     0.00     0.00     0.00 
     17 "LBUS17      " 345.00      27 "LBUS27      " 345.00  "1 "   1 " "  :  1  0.001300  0.017300  0.321600    0.0    0.0    0.0    0.0 0.000    0.0 /
   1    1  0.000000  0.000000  1.000000 19400101 21991231   0 1  0    0.0    0.0    0.0    0.0   1 1.000   0 0.000   0 0.000   0 0.000   0 0.000   0 0.000   0 0.000   0 0.000  0 0  0  0  0  90.000   0.000000  0.000000  " "     0.00     0.00     0.00     0.00 
     21 "LBUS21      " 345.00      22 "LBUS22      " 345.00  "1 "   1 " "  :  1  0.000800  0.014000  0.256500    0.0    0.0    0.0    0.0 0.000    0.0 /
   1    1  0.000000  0.000000  1.000000 19400101 21991231   0 1  0    0.0    0.0    0.0    0.0   1 1.000   0 0.000   0 0.000   0 0.000   0 0.000   0 0.000   0 0.000   0 0.000  0 0  0  0  0  90.000   0.000000  0.000000  " "     0.00     0.00     0.00     0.00 
     22 "LBUS22      " 345.00      23 "LBUS23      " 345.00  "1 "   1 " "  :  1  0.000600  0.009600  0.184600    0.0    0.0    0.0    0.0 0.000    0.0 /
   1    1  0.000000  0.000000  1.000000 19400101 21991231   0 1  0    0.0    0.0    0.0    0.0   1 1.000   0 0.000   0 0.000   0 0.000   0 0.000   0 0.000   0 0.000   0 0.000  0 0  0  0  0  90.000   0.000000  0.000000  " "     0.00     0.00     0.00     0.00 
     23 "LBUS23      " 345.00      24 "LBUS24      " 345.00  "1 "   1 " "  :  1  0.002200  0.035000  0.361000    0.0    0.0    0.0    0.0 0.000    0.0 /
   1    1  0.000000  0.000000  1.000000 19400101 21991231   0 1  0    0.0    0.0    0.0    0.0   1 1.000   0 0.000   0 0.000   0 0.000   0 0.000   0 0.000   0 0.000   0 0.000  0 0  0  0  0  90.000   0.000000  0.000000  " "     0.00     0.00     0.00     0.00 
     25 "LBUS25      " 345.00      26 "LBUS26      " 345.00  "1 "   1 " "  :  1  0.003200  0.032300  0.513000    0.0    0.0    0.0    0.0 0.000    0.0 /
   1    1  0.000000  0.000000  1.000000 19400101 21991231   0 1  0    0.0    0.0    0.0    0.0   1 1.000   0 0.000   0 0.000   0 0.000   0 0.000   0 0.000   0 0.000   0 0.000  0 0  0  0  0  90.000   0.000000  0.000000  " "     0.00     0.00     0.00     0.00 
     26 "LBUS26      " 345.00      27 "LBUS27      " 345.00  "1 "   1 " "  :  1  0.001400  0.014700  0.239600    0.0    0.0    0.0    0.0 0.000    0.0 /
   1    1  0.000000  0.000000  1.000000 19400101 21991231   0 1  0    0.0    0.0    0.0    0.0   1 1.000   0 0.000   0 0.000   0 0.000   0 0.000   0 0.000   0 0.000   0 0.000  0 0  0  0  0  90.000   0.000000  0.000000  " "     0.00     0.00     0.00     0.00 
     26 "LBUS26      " 345.00      28 "LBUS28      " 345.00  "1 "   1 " "  :  1  0.004300  0.047400  0.780200    0.0    0.0    0.0    0.0 0.000    0.0 /
   1    1  0.000000  0.000000  1.000000 19400101 21991231   0 1  0    0.0    0.0    0.0    0.0   1 1.000   0 0.000   0 0.000   0 0.000   0 0.000   0 0.000   0 0.000   0 0.000  0 0  0  0  0  90.000   0.000000  0.000000  " "     0.00     0.00     0.00     0.00 
     26 "LBUS26      " 345.00      29 "LBUS29      " 345.00  "1 "   1 " "  :  1  0.005700  0.062500  1.029000    0.0    0.0    0.0    0.0 0.000    0.0 /
   1    1  0.000000  0.000000  1.000000 19400101 21991231   0 1  0    0.0    0.0    0.0    0.0   1 1.000   0 0.000   0 0.000   0 0.000   0 0.000   0 0.000   0 0.000   0 0.000  0 0  0  0  0  90.000   0.000000  0.000000  " "     0.00     0.00     0.00     0.00 
     28 "LBUS28      " 345.00      29 "LBUS29      " 345.00  "1 "   1 " "  :  1  0.001400  0.015100  0.249000    0.0    0.0    0.0    0.0 0.000    0.0 /
   1    1  0.000000  0.000000  1.000000 19400101 21991231   0 1  0    0.0    0.0    0.0    0.0   1 1.000   0 0.000   0 0.000   0 0.000   0 0.000   0 0.000   0 0.000   0 0.000  0 0  0  0  0  90.000   0.000000  0.000000  " "     0.00     0.00     0.00     0.00 
transformer data  [  12]                                     ck   ------------long_id_------------     st ty --no---    reg_name          zt         int                              tert                   ar zone  tbase   ps_r    ps_x    pt_r    pt_x    ts_r    ts_x
      2 "LBUS02      " 345.00      30 "GBUS30      "  22.00  "1 "   " " :   1  1       0 "            "   0.00  0       0 "            "   0.00       0 "            "   0.00    1    1 100.000000 0.000000E+00 1.810000E-02 0.000000E+00 0.000000E+00 0.000000E+00 0.000000E+00 /
 345.000000 22.000000  0.000000  0.000000 0.000000E+00 0.000000E+00    0.0    0.0    0.0    0.0 0.000  1.100000  0.900000  1.100000  0.900000 -0.000200  1.025000  1.000000  1.000000  1.000000 19400101 21991231   0 1     0.0    0.0    0.0    0.0 /
   1 1.000   0 0.000   0 0.000   0 0.000   0 0.000   0 0.000   0 0.000   0 0.000  0 /
   0.000000   0.000000  0.000000  0.000000     0.0    0.0    0.0     0.0    0.0    0.0 0.000 0.000  1  1  1 0.0000 0.0000 0  0  0 0.000000 0.000000  0.000000  0.000000  " " 90.000000 /
    0.00    0.00    0.00    0.00    0.00    0.00    0.00    0.00    0.00    0.00    0.00    0.00    0.00 /
    0.00    0.00    0.00    0.00    0.00    0.00    0.00    0.00    0.00 
      6 "LBUS06      " 345.00      31 "GBUS31      "  22.00  "1 "   " " :   1  2       6 "LBUS06      " 345.00  0       0 "            "   0.00       0 "            "   0.00    1    1 100.000000 0.000000E+00 2.500000E-02 0.000000E+00 0.000000E+00 0.000000E+00 0.000000E+00 /
 345.000000 22.000000  0.000000  0.000000 0.000000E+00 0.000000E+00    0.0    0.0    0.0    0.0 0.000  1.100000  0.900000  1.170000  0.910000  0.006250  1.068750  1.000000  1.000000  1.000000 19400101 21991231   0 1     0.0    0.0    0.0    0.0 /
   1 1.000   0 0.000   0 0.000   0 0.000   0 0.000   0 0.000   0 0.000   0 0.000  0 /
   0.000000   0.000000  0.000000  0.000000     0.0    0.0    0.0     0.0    0.0    0.0 0.000 0.000  1  1  1 0.0000 0.0000 0  0  0 0.000000 0.000000  0.000000  0.000000  " " 90.000000 /
    0.00    0.00    0.00    0.00    0.00    0.00    0.00    0.00    0.00    0.00    0.00    0.00    0.00 /
    0.00    0.00    0.00    0.00    0.00    0.00    0.00    0.00    0.00 
     10 "LBUS10      " 345.00      32 "GBUS32      "  22.00  "1 "   " " :   1  1       0 "            "   0.00  0       0 "            "   0.00       0 "            "   0.00    1    1 100.000000 0.000000E+00 2.000000E-02 0.000000E+00 0.000000E+00 0.000000E+00 0.000000E+00 /
 345.000000 22.000000  0.000000  0.000000 0.000000E+00 0.000000E+00    0.0    0.0    0.0    0.0 0.000  1.100000  0.900000  1.100000  0.900000 -0.000200  1.070000  1.000000  1.000000  1.000000 19400101 21991231   0 1     0.0    0.0    0.0    0.0 /
   1 1.000   0 0.000   0 0.000   0 0.000   0 0.000   0 0.000   0 0.000   0 0.000  0 /
   0.000000   0.000000  0.000000  0.000000     0.0    0.0    0.0     0.0    0.0    0.0 0.000 0.000  1  1  1 0.0000 0.0000 0  0  0 0.000000 0.000000  0.000000  0.000000  " " 90.000000 /
    0.00    0.00    0.00    0.00    0.00    0.00    0.00    0.00    0.00    0.00    0.00    0.00    0.00 /
    0.00    0.00    0.00    0.00    0.00    0.00    0.00    0.00    0.00 
     12 "LBUS12      " 154.00      11 "LBUS11      " 345.00  "1 "   " " :   1  1       0 "            "   0.00  0       0 "            "   0.00       0 "            "   0.00    1    1 100.000000 1.600000E-03 4.350000E-02 0.000000E+00 0.000000E+00 0.000000E+00 0.000000E+00 /
 154.000000 345.000000  0.000000  0.000000 0.000000E+00 0.000000E+00    0.0    0.0    0.0    0.0 0.000  1.100000  0.900000  1.100000  0.900000 -0.000200  1.006000  1.000000  1.000000  1.000000 19400101 21991231   0 1     0.0    0.0    0.0    0.0 /
   1 1.000   0 0.000   0 0.000   0 0.000   0 0.000   0 0.000   0 0.000   0 0.000  0 /
   0.000000   0.000000  0.000000  0.000000     0.0    0.0    0.0     0.0    0.0    0.0 0.000 0.000  1  1  1 0.0000 0.0000 0  0  0 0.000000 0.000000  0.000000  0.000000  " " 90.000000 /
    0.00    0.00    0.00    0.00    0.00    0.00    0.00    0.00    0.00    0.00    0.00    0.00    0.00 /
    0.00    0.00    0.00    0.00    0.00    0.00    0.00    0.00    0.00 
     12 "LBUS12      " 154.00      13 "LBUS13      " 345.00  "1 "   " " :   1  1       0 "            "   0.00  0       0 "            "   0.00       0 "            "   0.00    1    1 100.000000 1.600000E-03 4.350000E-02 0.000000E+00 0.000000E+00 0.000000E+00 0.000000E+00 /
 154.000000 345.000000  0.000000  0.000000 0.000000E+00 0.000000E+00    0.0    0.0    0.0    0.0 0.000  1.100000  0.900000  1.100000  0.900000 -0.000200  1.006000  1.000000  1.000000  1.000000 19400101 21991231   0 1     0.0    0.0    0.0    0.0 /
   1 1.000   0 0.000   0 0.000   0 0.000   0 0.000   0 0.000   0 0.000   0 0.000  0 /
   0.000000   0.000000  0.000000  0.000000     0.0    0.0    0.0     0.0    0.0    0.0 0.000 0.000  1  1  1 0.0000 0.0000 0  0  0 0.000000 0.000000  0.000000  0.000000  " " 90.000000 /
    0.00    0.00    0.00    0.00    0.00    0.00    0.00    0.00    0.00    0.00    0.00    0.00    0.00 /
    0.00    0.00    0.00    0.00    0.00    0.00    0.00    0.00    0.00 
     19 "LBUS19      " 345.00      20 "LBUS20      " 345.00  "1 "   " " :   1  1       0 "            "   0.00  0       0 "            "   0.00       0 "            "   0.00    1    1 100.000000 7.000000E-04 1.380000E-02 0.000000E+00 0.000000E+00 0.000000E+00 0.000000E+00 /
 345.000000 345.000000  0.000000  0.000000 0.000000E+00 0.000000E+00    0.0    0.0    0.0    0.0 0.000  1.100000  0.900000  1.100000  0.900000 -0.000200  1.060000  1.000000  1.000000  1.000000 19400101 21991231   0 1     0.0    0.0    0.0    0.0 /
   1 1.000   0 0.000   0 0.000   0 0.000   0 0.000   0 0.000   0 0.000   0 0.000  0 /
   0.000000   0.000000  0.000000  0.000000     0.0    0.0    0.0     0.0    0.0    0.0 0.000 0.000  1  1  1 0.0000 0.0000 0  0  0 0.000000 0.000000  0.000000  0.000000  " " 90.000000 /
    0.00    0.00    0.00    0.00    0.00    0.00    0.00    0.00    0.00    0.00    0.00    0.00    0.00 /
    0.00    0.00    0.00    0.00    0.00    0.00    0.00    0.00    0.00 
     19 "LBUS19      " 345.00      33 "GBUS33      "  22.00  "1 "   " " :   1  1       0 "            "   0.00  0       0 "            "   0.00       0 "            "   0.00    1    1 100.000000 7.000000E-04 1.420000E-02 0.000000E+00 0.000000E+00 0.000000E+00 0.000000E+00 /
 345.000000 22.000000  0.000000  0.000000 0.000000E+00 0.000000E+00    0.0    0.0    0.0    0.0 0.000  1.100000  0.900000  1.100000  0.900000 -0.000200  1.070000  1.000000  1.000000  1.000000 19400101 21991231   0 1     0.0    0.0    0.0    0.0 /
   1 1.000   0 0.000   0 0.000   0 0.000   0 0.000   0 0.000   0 0.000   0 0.000  0 /
   0.000000   0.000000  0.000000  0.000000     0.0    0.0    0.0     0.0    0.0    0.0 0.000 0.000  1  1  1 0.0000 0.0000 0  0  0 0.000000 0.000000  0.000000  0.000000  " " 90.000000 /
    0.00    0.00    0.00    0.00    0.00    0.00    0.00    0.00    0.00    0.00    0.00    0.00    0.00 /
    0.00    0.00    0.00    0.00    0.00    0.00    0.00    0.00    0.00 
     20 "LBUS20      " 345.00      34 "GBUS34      "  22.00  "1 "   " " :   1  1       0 "            "   0.00  0       0 "            "   0.00       0 "            "   0.00    1    1 100.000000 9.000000E-04 1.800000E-02 0.000000E+00 0.000000E+00 0.000000E+00 0.000000E+00 /
 345.000000 22.000000  0.000000  0.000000 0.000000E+00 0.000000E+00    0.0    0.0    0.0    0.0 0.000  1.100000  0.900000  1.100000  0.900000 -0.000200  1.009000  1.000000  1.000000  1.000000 19400101 21991231   0 1     0.0    0.0    0.0    0.0 /
   1 1.000   0 0.000   0 0.000   0 0.000   0 0.000   0 0.000   0 0.000   0 0.000  0 /
   0.000000   0.000000  0.000000  0.000000     0.0    0.0    0.0     0.0    0.0    0.0 0.000 0.000  1  1  1 0.0000 0.0000 0  0  0 0.000000 0.000000  0.000000  0.000000  " " 90.000000 /
    0.00    0.00    0.00    0.00    0.00    0.00    0.00    0.00    0.00    0.00    0.00    0.00    0.00 /
    0.00    0.00    0.00    0.00    0.00    0.00    0.00    0.00    0.00 
     22 "LBUS22      " 345.00      35 "GBUS35      "  22.00  "1 "   " " :   1  1       0 "            "   0.00  0       0 "            "   0.00       0 "            "   0.00    1    1 100.000000 0.000000E+00 1.430000E-02 0.000000E+00 0.000000E+00 0.000000E+00 0.000000E+00 /
 345.000000 22.000000  0.000000  0.000000 0.000000E+00 0.000000E+00    0.0    0.0    0.0    0.0 0.000  1.100000  0.900000  1.100000  0.900000 -0.000200  1.025000  1.000000  1.000000  1.000000 19400101 21991231   0 1     0.0    0.0    0.0    0.0 /
   1 1.000   0 0.000   0 0.000   0 0.000   0 0.000   0 0.000   0 0.000   0 0.000  0 /
   0.000000   0.000000  0.000000  0.000000     0.0    0.0    0.0     0.0    0.0    0.0 0.000 0.000  1  1  1 0.0000 0.0000 0  0  0 0.000000 0.000000  0.000000  0.000000  " " 90.000000 /
    0.00    0.00    0.00    0.00    0.00    0.00    0.00    0.00    0.00    0.00    0.00    0.00    0.00 /
    0.00    0.00    0.00    0.00    0.00    0.00    0.00    0.00    0.00 
     23 "LBUS23      " 345.00      36 "GBUS36      "  22.00  "1 "   " " :   1  1       0 "            "   0.00  0       0 "            "   0.00       0 "            "   0.00    1    1 100.000000 5.000000E-04 2.720000E-02 0.000000E+00 0.000000E+00 0.000000E+00 0.000000E+00 /
 345.000000 22.000000  0.000000  0.000000 0.000000E+00 0.000000E+00    0.0    0.0    0.0    0.0 0.000  1.100000  0.900000  1.100000  0.900000 -0.000200  1.000000  1.000000  1.000000  1.000000 19400101 21991231   0 1     0.0    0.0    0.0    0.0 /
   1 1.000   0 0.000   0 0.000   0 0.000   0 0.000   0 0.000   0 0.000   0 0.000  0 /
   0.000000   0.000000  0.000000  0.000000     0.0    0.0    0.0     0.0    0.0    0.0 0.000 0.000  1  1  1 0.0000 0.0000 0  0  0 0.000000 0.000000  0.000000  0.000000  " " 90.000000 /
    0.00    0.00    0.00    0.00    0.00    0.00    0.00    0.00    0.00    0.00    0.00    0.00    0.00 /
    0.00    0.00    0.00    0.00    0.00    0.00    0.00    0.00    0.00 
     25 "LBUS25      " 345.00      37 "GBUS37      "  22.00  "1 "   " " :   1  1       0 "            "   0.00  0       0 "            "   0.00       0 "            "   0.00    1    1 100.000000 6.000000E-04 2.320000E-02 0.000000E+00 0.000000E+00 0.000000E+00 0.000000E+00 /
 345.000000 22.000000  0.000000  0.000000 0.000000E+00 0.000000E+00    0.0    0.0    0.0    0.0 0.000  1.100000  0.900000  1.100000  0.900000 -0.000200  1.025000  1.000000  1.000000  1.000000 19400101 21991231   0 1     0.0    0.0    0.0    0.0 /
   1 1.000   0 0.000   0 0.000   0 0.000   0 0.000   0 0.000   0 0.000   0 0.000  0 /
   0.000000   0.000000  0.000000  0.000000     0.0    0.0    0.0     0.0    0.0    0.0 0.000 0.000  1  1  1 0.0000 0.0000 0  0  0 0.000000 0.000000  0.000000  0.000000  " " 90.000000 /
    0.00    0.00    0.00    0.00    0.00    0.00    0.00    0.00    0.00    0.00    0.00    0.00    0.00 /
    0.00    0.00    0.00    0.00    0.00    0.00    0.00    0.00    0.00 
     29 "LBUS29      " 345.00      38 "GBUS38      "  22.00  "1 "   "***"    :   1  1       0 "            "   0.00  0       0 "            "   0.00       0 "            "   0.00    1    1 100.000000 8.000000E-04 1.560000E-02 0.000000E+00 0.000000E+00 0.000000E+00 0.000000E+00 /
 345.000000 22.000000  0.000000  0.000000 0.000000E+00 0.000000E+00    0.0    0.0    0.0    0.0 0.000  1.100000  0.900000  1.100000  0.900000 -0.000200  1.025000  1.000000  1.000000  1.000000 19400101 21991231   0 1     0.0    0.0    0.0    0.0 /
   1 1.000   0 0.000   0 0.000   0 0.000   0 0.000   0 0.000   0 0.000   0 0.000  0 /
   0.000000   0.000000  0.000000  0.000000     0.0    0.0    0.0     0.0    0.0    0.0 0.000 0.000  1  1  1 0.0000 0.0000 0  0  0 0.000000 0.000000  0.000000  0.000000  " " 90.000000 /
    0.00    0.00    0.00    0.00    0.00    0.00    0.00    0.00    0.00    0.00    0.00    0.00    0.00 /
    0.00    0.00    0.00    0.00    0.00    0.00    0.00    0.00    0.00 
generator data  [  13]         id   ------------long_id_------------    st ---no--     reg_name           prf  qrf  ar zone   pgen   pmax   pmin   qgen   qmax   qmin   mbase  cmp_r cmp_x gen_r gen_x           hbus                         tbus                date_in date_out pid N
      1 "LBUS01      " 345.00 "DC"  " " :  1       1 "LBUS01      " 345.00  1.000000  1.000000   1    1 -799.061584 996.426487 -996.426487 140.177011 679.432726 -679.432726 1000.0000 0.000 0.001 0.000 9999.000      -1 "            "   0.00      -1 "            "   0.00  19400101 21991231   0 0 /
 0.0000 0.0000 1.0000    1 1.000   0 0.000   0 0.000   0 0.000   0 0.000   0 0.000   0 0.000   0 0.000   0   0   0   0   0   0   0    0.0 0 0  1.000000    1  " "  0  0   0   0   0   0   0.000000   0   0  0.000000   0  0.000000   0.000000  " "    -1    -1   0.000000   0.000000 
     15 "LBUS15      " 345.00 "DC"  " " :  1      15 "LBUS15      " 345.00  1.000000  1.000000   1    1 401.349592 578.384686 -578.384686 -16.668022 457.807350 -457.807350 600.0000 0.000 0.001 0.000 9999.000      -1 "            "   0.00      -1 "            "   0.00  19400101 21991231   0 0 /
 0.0000 0.0000 1.0000    1 1.000   0 0.000   0 0.000   0 0.000   0 0.000   0 0.000   0 0.000   0 0.000   0   0   0   0   0   0   0    0.0 0 0  1.000000    1  " "  0  0   0   0   0   0   0.000000   0   0  0.000000   0  0.000000   0.000000  " "    -1    -1   0.000000   0.000000 
     24 "LBUS24      " 345.00 "DC"  " " :  1      24 "LBUS24      " 345.00  1.000000  1.000000   1    1 299.999928 591.551685 -591.551685 -0.802428 545.653582 -545.653582 600.0000 0.000 0.001 0.000 9999.000      -1 "            "   0.00      -1 "            "   0.00  19400101 21991231   0 0 /
 0.0000 0.0000 1.0000    1 1.000   0 0.000   0 0.000   0 0.000   0 0.000   0 0.000   0 0.000   0 0.000   0   0   0   0   0   0   0    0.0 0 0  1.000000    1  " "  0  0   0   0   0   0   0.000000   0   0  0.000000   0  0.000000   0.000000  " "    -1    -1   0.000000   0.000000 
     30 "GBUS30      "  22.00 "1 "  " " :  1      30 "GBUS30      "  22.00  1.000000  1.000000   1    1 271.000004 9998.999786 -9998.999786 180.282795 400.000000 139.999998 480.0000 0.000 0.000 0.000 0.096      -1 "            "   0.00      -1 "            "   0.00  19400101 21991231   0 0 /
 0.0000 0.0000 1.0000    1 1.000   0 0.000   0 0.000   0 0.000   0 0.000   0 0.000   0 0.000   0 0.000   0   0   0   0   0   0   0    0.0 0 0  1.000000    1  " "  0  0   0   0   0   0   0.000000   0   0  0.000000   0  0.000000   0.000000  " "    -1    -1   0.000000   0.000000 
     31 "GBUS31      "  22.00 "1 "  " " :  1      31 "GBUS31      "  22.00  1.000000  1.000000   1    1 607.877541 9998.999786 -9998.999786 229.419947  0.000000  0.000000 610.0000 0.000 0.001 0.000 0.249      -1 "            "   0.00      -1 "            "   0.00  19400101 21991231   0 0 /
 0.0000 0.0000 1.0000    1 1.000   0 0.000   0 0.000   0 0.000   0 0.000   0 0.000   0 0.000   0 0.000   0   0   0   0   0   0   0    0.0 0 0  1.000000    1  " "  0  0   0   0   0   0   0.000000   0   0  0.000000   0  0.000000   0.000000  " "    -1    -1   0.000000   0.000000 
     32 "GBUS32      "  22.00 "1 "  " " :  1      32 "GBUS32      "  22.00  1.000000  1.000000   1    1 619.999981 9998.999786 -9998.999786 219.740725 300.000000 150.000000 720.0000 0.000 0.001 0.000 0.270      -1 "            "   0.00      -1 "            "   0.00  19400101 21991231   0 0 /
 0.0000 0.0000 1.0000    1 1.000   0 0.000   0 0.000   0 0.000   0 0.000   0 0.000   0 0.000   0 0.000   0   0   0   0   0   0   0    0.0 0 0  1.000000    1  " "  0  0   0   0   0   0   0.000000   0   0  0.000000   0  0.000000   0.000000  " "    -1    -1   0.000000   0.000000 
     33 "GBUS33      "  22.00 "1 "  " " :  1      33 "GBUS33      "  22.00  1.000000  1.000000   1    1 594.999981 9998.999786 -9998.999786 106.824386 250.000000  0.000000 680.0000 0.000 0.001 0.000 0.254      -1 "            "   0.00      -1 "            "   0.00  19400101 21991231   0 0 /
 0.0000 0.0000 1.0000    1 1.000   0 0.000   0 0.000   0 0.000   0 0.000   0 0.000   0 0.000   0 0.000   0   0   0   0   0   0   0    0.0 0 0  1.000000    1  " "  0  0   0   0   0   0   0.000000   0   0  0.000000   0  0.000000   0.000000  " "    -1    -1   0.000000   0.000000 
     34 "GBUS34      "  22.00 "1 "  " " :  1      34 "GBUS34      "  22.00  1.000000  1.000000   1    1 490.799999 9998.999786 -9998.999786 163.796186 166.999996  0.000000 540.0000 0.000 0.001 0.000 0.459      -1 "            "   0.00      -1 "            "   0.00  19400101 21991231   0 0 /
 0.0000 0.0000 1.0000    1 1.000   0 0.000   0 0.000   0 0.000   0 0.000   0 0.000   0 0.000   0 0.000   0   0   0   0   0   0   0    0.0 0 0  1.000000    1  " "  0  0   0   0   0   0   0.000000   0   0  0.000000   0  0.000000   0.000000  " "    -1    -1   0.000000   0.000000 
     35 "GBUS35      "  22.00 "1 "  " " :  1      35 "GBUS35      "  22.00  1.000000  1.000000   1    1 615.000010 9998.999786 -9998.999786 206.728244 300.000000 -100.000000 720.0000 0.000 0.001 0.000 0.244      -1 "            "   0.00      -1 "            "   0.00  19400101 21991231   0 0 /
 0.0000 0.0000 1.0000    1 1.000   0 0.000   0 0.000   0 0.000   0 0.000   0 0.000   0 0.000   0 0.000   0   0   0   0   0   0   0    0.0 0 0  1.000000    1  " "  0  0   0   0   0   0   0.000000   0   0  0.000000   0  0.000000   0.000000  " "    -1    -1   0.000000   0.000000 
     36 "GBUS36      "  22.00 "1 "  " " :  1      36 "GBUS36      "  22.00  1.000000  1.000000   1    1 538.000011 9998.999786 -9998.999786 95.793682 240.000010  0.000000 610.0000 0.000 0.001 0.000 0.247      -1 "            "   0.00      -1 "            "   0.00  19400101 21991231   0 0 /
 0.0000 0.0000 1.0000    1 1.000   0 0.000   0 0.000   0 0.000   0 0.000   0 0.000   0 0.000   0 0.000   0   0   0   0   0   0   0    0.0 0 0  1.000000    1  " "  0  0   0   0   0   0   0.000000   0   0  0.000000   0  0.000000   0.000000  " "    -1    -1   0.000000   0.000000 
     37 "GBUS37      "  22.00 "1 "  " " :  1      37 "GBUS37      "  22.00  1.000000  1.000000   1    1 544.999981 9998.999786 -9998.999786  0.000000 250.000000  0.000000 600.0000 0.000 0.001 0.000 0.215      -1 "            "   0.00      -1 "            "   0.00  19400101 21991231   0 0 /
 0.0000 0.0000 1.0000    1 1.000   0 0.000   0 0.000   0 0.000   0 0.000   0 0.000   0 0.000   0 0.000   0   0   0   0   0   0   0    0.0 0 0  1.000000    1  " "  0  0   0   0   0   0   0.000000   0   0  0.000000   0  0.000000   0.000000  " "    -1    -1   0.000000   0.000000 
     38 "GBUS38      "  22.00 "1 "  " " :  1      38 "GBUS38      "  22.00  1.000000  1.000000   1    1 814.999962 9998.999786 -9998.999786 18.834588 300.000000  0.000000 890.0000 0.000 0.001 0.000 0.338      -1 "            "   0.00      -1 "            "   0.00  19400101 21991231   0 0 /
 0.0000 0.0000 1.0000    1 1.000   0 0.000   0 0.000   0 0.000   0 0.000   0 0.000   0 0.000   0 0.000   0   0   0   0   0   0   0    0.0 0 0  1.000000    1  " "  0  0   0   0   0   0   0.000000   0   0  0.000000   0  0.000000   0.000000  " "    -1    -1   0.000000   0.000000 
     39 "GBUS39      " 345.00 "1 "  " " :  1      39 "GBUS39      " 345.00  1.000000  1.000000   1    1 1160.000038 9998.999786 -9998.999786 106.549680 9998.999786 -9998.999786 10000.0000 0.000 0.010 0.000 0.400      -1 "            "   0.00      -1 "            "   0.00  19400101 21991231   0 0 /
 0.0000 0.0000 1.0000    1 1.000   0 0.000   0 0.000   0 0.000   0 0.000   0 0.000   0 0.000   0 0.000   0   0   0   0   0   0   0    0.0 0 0  1.000000    1  " "  0  0   0   0   0   0   0.000000   0   0  0.000000   0  0.000000   0.000000  " "    -1    -1   0.000000   0.000000 
load data  [  19]             id   ------------long_id_------------     st      mw      mvar    mw_i    mvar_i  mw_z      mvar_z  ar zone  date_in date_out pid N own M nonc  thr_bus flg
      3 "LBUS03      " 345.00 "1 "   " "  :  1 322.000003 2.400000 0.000000 0.000000 0.000000 0.000000   1    1 19400101 21991231   0 0   1 0    0       0 "            "   0.00   0 ""    1  0      0 "            "   0.00 "  " 0.000000 0.000000 0 0 0.000000 0.000000 0 0  0.000000  " "  0.000000 0.000000 0.000000 0.000000 0.000000 0.000000 0.000000 0.000000 0.000000 0.000000
      4 "LBUS04      " 345.00 "1 "   " "  :  1 500.000000 184.000003 0.000000 0.000000 0.000000 0.000000   1    1 19400101 21991231   0 0   1 0    0       0 "            "   0.00   0 ""    1  0      0 "            "   0.00 "  " 0.000000 0.000000 0 0 0.000000 0.000000 0 0  0.000000  " "  0.000000 0.000000 0.000000 0.000000 0.000000 0.000000 0.000000 0.000000 0.000000 0.000000
      7 "LBUS07      " 345.00 "1 "   " "  :  1 233.800006 83.999997 0.000000 0.000000 0.000000 0.000000   1    1 19400101 21991231   0 0   1 0    0       0 "            "   0.00   0 ""    1  0      0 "            "   0.00 "  " 0.000000 0.000000 0 0 0.000000 0.000000 0 0  0.000000  " "  0.000000 0.000000 0.000000 0.000000 0.000000 0.000000 0.000000 0.000000 0.000000 0.000000
      8 "LBUS08      " 345.00 "1 "   " "  :  1 521.999979 175.999999 0.000000 0.000000 0.000000 0.000000   1    1 19400101 21991231   0 0   1 0    0       0 "            "   0.00   0 ""    1  0      0 "            "   0.00 "  " 0.000000 0.000000 0 0 0.000000 0.000000 0 0  0.000000  " "  0.000000 0.000000 0.000000 0.000000 0.000000 0.000000 0.000000 0.000000 0.000000 0.000000
     12 "LBUS12      " 154.00 "1 "   " "  :  1 7.500000 88.000000 0.000000 0.000000 0.000000 0.000000   1    1 19400101 21991231   0 0   1 0    0       0 "            "   0.00   0 ""    1  0      0 "            "   0.00 "  " 0.000000 0.000000 0 0 0.000000 0.000000 0 0  0.000000  " "  0.000000 0.000000 0.000000 0.000000 0.000000 0.000000 0.000000 0.000000 0.000000 0.000000
     15 "LBUS15      " 345.00 "1 "   " "  :  1 320.000005 152.999997 0.000000 0.000000 0.000000 0.000000   1    1 19400101 21991231   0 0   1 0    0       0 "            "   0.00   0 ""    1  0      0 "            "   0.00 "  " 0.000000 0.000000 0 0 0.000000 0.000000 0 0  0.000000  " "  0.000000 0.000000 0.000000 0.000000 0.000000 0.000000 0.000000 0.000000 0.000000 0.000000
     16 "LBUS16      " 345.00 "1 "   " "  :  1 329.399991 32.299998 0.000000 0.000000 0.000000 0.000000   1    1 19400101 21991231   0 0   1 0    0       0 "            "   0.00   0 ""    1  0      0 "            "   0.00 "  " 0.000000 0.000000 0 0 0.000000 0.000000 0 0  0.000000  " "  0.000000 0.000000 0.000000 0.000000 0.000000 0.000000 0.000000 0.000000 0.000000 0.000000
     18 "LBUS18      " 345.00 "1 "   " "  :  1 158.000004 30.000001 0.000000 0.000000 0.000000 0.000000   1    1 19400101 21991231   0 0   1 0    0       0 "            "   0.00   0 ""    1  0      0 "            "   0.00 "  " 0.000000 0.000000 0 0 0.000000 0.000000 0 0  0.000000  " "  0.000000 0.000000 0.000000 0.000000 0.000000 0.000000 0.000000 0.000000 0.000000 0.000000
     20 "LBUS20      " 345.00 "1 "   " "  :  1 628.000021 102.999997 0.000000 0.000000 0.000000 0.000000   1    1 19400101 21991231   0 0   1 0    0       0 "            "   0.00   0 ""    1  0      0 "            "   0.00 "  " 0.000000 0.000000 0 0 0.000000 0.000000 0 0  0.000000  " "  0.000000 0.000000 0.000000 0.000000 0.000000 0.000000 0.000000 0.000000 0.000000 0.000000
     21 "LBUS21      " 345.00 "1 "   " "  :  1 274.000001 114.999998 0.000000 0.000000 0.000000 0.000000   1    1 19400101 21991231   0 0   1 0    0       0 "            "   0.00   0 ""    1  0      0 "            "   0.00 "  " 0.000000 0.000000 0 0 0.000000 0.000000 0 0  0.000000  " "  0.000000 0.000000 0.000000 0.000000 0.000000 0.000000 0.000000 0.000000 0.000000 0.000000
     23 "LBUS23      " 345.00 "1 "   " "  :  1 247.499990 84.599996 0.000000 0.000000 0.000000 0.000000   1    1 19400101 21991231   0 0   1 0    0       0 "            "   0.00   0 ""    1  0      0 "            "   0.00 "  " 0.000000 0.000000 0 0 0.000000 0.000000 0 0  0.000000  " "  0.000000 0.000000 0.000000 0.000000 0.000000 0.000000 0.000000 0.000000 0.000000 0.000000
     24 "LBUS24      " 345.00 "1 "   " "  :  1 308.599997 -92.199999 0.000000 0.000000 0.000000 0.000000   1    1 19400101 21991231   0 0   1 0    0       0 "            "   0.00   0 ""    1  0      0 "            "   0.00 "  " 0.000000 0.000000 0 0 0.000000 0.000000 0 0  0.000000  " "  0.000000 0.000000 0.000000 0.000000 0.000000 0.000000 0.000000 0.000000 0.000000 0.000000
     25 "LBUS25      " 345.00 "1 "   " "  :  1 224.000001 47.200000 0.000000 0.000000 0.000000 0.000000   1    1 19400101 21991231   0 0   1 0    0       0 "            "   0.00   0 ""    1  0      0 "            "   0.00 "  " 0.000000 0.000000 0 0 0.000000 0.000000 0 0  0.000000  " "  0.000000 0.000000 0.000000 0.000000 0.000000 0.000000 0.000000 0.000000 0.000000 0.000000
     26 "LBUS26      " 345.00 "1 "   " "  :  1 138.999999 17.000000 0.000000 0.000000 0.000000 0.000000   1    1 19400101 21991231   0 0   1 0    0       0 "            "   0.00   0 ""    1  0      0 "            "   0.00 "  " 0.000000 0.000000 0 0 0.000000 0.000000 0 0  0.000000  " "  0.000000 0.000000 0.000000 0.000000 0.000000 0.000000 0.000000 0.000000 0.000000 0.000000
     27 "LBUS27      " 345.00 "1 "   " "  :  1 280.999994 75.500000 0.000000 0.000000 0.000000 0.000000   1    1 19400101 21991231   0 0   1 0    0       0 "            "   0.00   0 ""    1  0      0 "            "   0.00 "  " 0.000000 0.000000 0 0 0.000000 0.000000 0 0  0.000000  " "  0.000000 0.000000 0.000000 0.000000 0.000000 0.000000 0.000000 0.000000 0.000000 0.000000
     28 "LBUS28      " 345.00 "1 "   " "  :  1 205.999994 27.599999 0.000000 0.000000 0.000000 0.000000   1    1 19400101 21991231   0 0   1 0    0       0 "            "   0.00   0 ""    1  0      0 "            "   0.00 "  " 0.000000 0.000000 0 0 0.000000 0.000000 0 0  0.000000  " "  0.000000 0.000000 0.000000 0.000000 0.000000 0.000000 0.000000 0.000000 0.000000 0.000000
     29 "LBUS29      " 345.00 "1 "   " "  :  1 283.500004 26.899999 0.000000 0.000000 0.000000 0.000000   1    1 19400101 21991231   0 0   1 0    0       0 "            "   0.00   0 ""    1  0      0 "            "   0.00 "  " 0.000000 0.000000 0 0 0.000000 0.000000 0 0  0.000000  " "  0.000000 0.000000 0.000000 0.000000 0.000000 0.000000 0.000000 0.000000 0.000000 0.000000
     31 "GBUS31      "  22.00 "1 "   " "  :  1 9.200000 4.600000 0.000000 0.000000 0.000000 0.000000   1    1 19400101 21991231   0 0   1 0    0       0 "            "   0.00   0 ""    1  0      0 "            "   0.00 "  " 0.000000 0.000000 0 0 0.000000 0.000000 0 0  0.000000  " "  0.000000 0.000000 0.000000 0.000000 0.000000 0.000000 0.000000 0.000000 0.000000 0.000000
     39 "GBUS39      " 345.00 "1 "   " "  :  1 1103.999996 250.000000 0.000000 0.000000 0.000000 0.000000   1    1 19400101 21991231   0 0   1 0    0       0 "            "   0.00   0 ""    1  0      0 "            "   0.00 "  " 0.000000 0.000000 0 0 0.000000 0.000000 0 0  0.000000  " "  0.000000 0.000000 0.000000 0.000000 0.000000 0.000000 0.000000 0.000000 0.000000 0.000000
shunt data  [   0]             id                                 ck  se  ------------long_id_------------     st ar  zone    pu_mw  pu_mvar  date_in date_out pid N own part1 own part2 own part3 own part4 --num-- ----name----  --kv-- M --num--  ----name----  --kv--  ID  st
svd data  [   0]               id   ------------long_id_------------    st ty --no---     reg_name           ar zone      g      b  min_c  max_c  vband   bmin   bmax  date_in date_out pid N own part1 own part2 own part3 own part4 M st
area data  [  1]                            swing  desired    tol      pnet     qnet
    1 "1                               "       0    0.000    1.000    0.432    0.000 0  0  0  " "  0.000000
zone data  [   1]                            pnet     qnet
    1 "1                               "    0.432    0.000 0
interface data  [   0]                      pnet     qnet   -rate1- -rate2- -rate3- -rate4- -rate5- -rate6- -rate7- -rate8-
interface branch data  [    0]                              ck      -i_no-  part_fac  
dc bus data  [ 0]             ty ar  zone   vsched     dc_volt  date_in date_out pid own
dc converter data  [ 0]                               id   long_id_    st ty md nb fg  --no---           reg   ar zone  date_in date_out
vs converter data  [ 0]                                        id   ------------long_id_------------ st reg           ar zn dmd amd  dcset acset
z table data  [ 0]  -tap2 fact2 -tap3 fact3 -tap4 fact4 -tap5 fact5 -tap6 fact6 -tap7 fact7 -tap8 fact8 -tap9 fact9 tap10 fac10 tap11 fac11
gcd data  [   0]
transaction data  [    0]              st    sch_mw   sch_mvar  flag stn pid         transaction name
owner data  [    1]    owner name           s name       net_mw   net_mvar     sch_mw   sch_mvar  ar
       1 "1                               " "    " :     0.000      0.000      0.000      0.000   0 0 


qtable data     [   0]   id     p[0]   qmx[0]  qmn[0]  ....
ba data  [  1]                            swing  desired    tol      pnet     qnet
    1 "1                               "       0    0.000    1.000    0.432    0.000 0  0  0  " "  0.000000
injgroup data  [  0]
injgrpelem data  [   0]
constant_efield data	[   0]	num	name	:	intensity(V/km)	direction(0 being vector pointing east)
efield data	[   0]	number	:	Ex	Ey	latitude	longitude
gmdbranch data	[      34]	from	name	fromkv	to	name	tokv	ck	sec	:	rdcsec
	      1	"LBUS01      "	 345.000	      2	"LBUS02      "	 345.000	"1 "	 1 : 0.000000
	      1	"LBUS01      "	 345.000	     39	"GBUS39      "	 345.000	"1 "	 1 : 0.000000
	      2	"LBUS02      "	 345.000	      3	"LBUS03      "	 345.000	"1 "	 1 : 0.000000
	      2	"LBUS02      "	 345.000	     25	"LBUS25      "	 345.000	"1 "	 1 : 0.000000
	      3	"LBUS03      "	 345.000	      4	"LBUS04      "	 345.000	"1 "	 1 : 0.000000
	      3	"LBUS03      "	 345.000	     18	"LBUS18      "	 345.000	"1 "	 1 : 0.000000
	      4	"LBUS04      "	 345.000	      5	"LBUS05      "	 345.000	"1 "	 1 : 0.000000
	      4	"LBUS04      "	 345.000	     14	"LBUS14      "	 345.000	"1 "	 1 : 0.000000
	      5	"LBUS05      "	 345.000	      6	"LBUS06      "	 345.000	"1 "	 1 : 0.000000
	      5	"LBUS05      "	 345.000	      8	"LBUS08      "	 345.000	"1 "	 1 : 0.000000
	      6	"LBUS06      "	 345.000	      7	"LBUS07      "	 345.000	"1 "	 1 : 0.000000
	      6	"LBUS06      "	 345.000	     11	"LBUS11      "	 345.000	"1 "	 1 : 0.000000
	      7	"LBUS07      "	 345.000	      8	"LBUS08      "	 345.000	"1 "	 1 : 0.000000
	      8	"LBUS08      "	 345.000	      9	"LBUS09      "	 345.000	"1 "	 1 : 0.000000
	      9	"LBUS09      "	 345.000	     39	"GBUS39      "	 345.000	"1 "	 1 : 0.000000
	     10	"LBUS10      "	 345.000	     11	"LBUS11      "	 345.000	"1 "	 1 : 0.000000
	     10	"LBUS10      "	 345.000	     13	"LBUS13      "	 345.000	"1 "	 1 : 0.000000
	     13	"LBUS13      "	 345.000	     14	"LBUS14      "	 345.000	"1 "	 1 : 0.000000
	     14	"LBUS14      "	 345.000	     15	"LBUS15      "	 345.000	"1 "	 1 : 0.000000
	     15	"LBUS15      "	 345.000	     16	"LBUS16      "	 345.000	"1 "	 1 : 0.000000
	     16	"LBUS16      "	 345.000	     17	"LBUS17      "	 345.000	"1 "	 1 : 0.000000
	     16	"LBUS16      "	 345.000	     19	"LBUS19      "	 345.000	"1 "	 1 : 0.000000
	     16	"LBUS16      "	 345.000	     21	"LBUS21      "	 345.000	"1 "	 1 : 0.000000
	     16	"LBUS16      "	 345.000	     24	"LBUS24      "	 345.000	"1 "	 1 : 0.000000
	     17	"LBUS17      "	 345.000	     18	"LBUS18      "	 345.000	"1 "	 1 : 0.000000
	     17	"LBUS17      "	 345.000	     27	"LBUS27      "	 345.000	"1 "	 1 : 0.000000
	     21	"LBUS21      "	 345.000	     22	"LBUS22      "	 345.000	"1 "	 1 : 0.000000
	     22	"LBUS22      "	 345.000	     23	"LBUS23      "	 345.000	"1 "	 1 : 0.000000
	     23	"LBUS23      "	 345.000	     24	"LBUS24      "	 345.000	"1 "	 1 : 0.000000
	     25	"LBUS25      "	 345.000	     26	"LBUS26      "	 345.000	"1 "	 1 : 0.000000
	     26	"LBUS26      "	 345.000	     27	"LBUS27      "	 345.000	"1 "	 1 : 0.000000
	     26	"LBUS26      "	 345.000	     28	"LBUS28      "	 345.000	"1 "	 1 : 0.000000
	     26	"LBUS26      "	 345.000	     29	"LBUS29      "	 345.000	"1 "	 1 : 0.000000
	     28	"LBUS28      "	 345.000	     29	"LBUS29      "	 345.000	"1 "	 1 : 0.000000
gmdtransformer data	[     12]	from	name	fromkv	to	name	tokv	(tw)	(name)	(twkv)	ck	:	type	pwtype	swtype	(twtype)	subnum	autoflag	kfactor	rdcpw/series	rdcsw/common	(rdctw/tert)	bdpwstatus	bdpwtype	bdpwpr	bdswstatus	bdswtype	bdswpr	(bdtwstatus)	(bdtwtype)	(bdtwpr)
	      2	"LBUS02      "	 345.000	     30	"GBUS30      "	  22.000	"1 "	:	"unknown     "	"  "	"  "	      0	0	 0.00000	 0.00000	 0.00000	0	0	 0.00000	0	0	 0.00000
	      6	"LBUS06      "	 345.000	     31	"GBUS31      "	  22.000	"1 "	:	"unknown     "	"  "	"  "	      0	0	 0.00000	 0.00000	 0.00000	0	0	 0.00000	0	0	 0.00000
	     10	"LBUS10      "	 345.000	     32	"GBUS32      "	  22.000	"1 "	:	"unknown     "	"  "	"  "	      0	0	 0.00000	 0.00000	 0.00000	0	0	 0.00000	0	0	 0.00000
	     11	"LBUS11      "	 345.000	     12	"LBUS12      "	 154.000	"1 "	:	"unknown     "	"  "	"  "	      0	0	 0.00000	 0.00000	 0.00000	0	0	 0.00000	0	0	 0.00000
	     13	"LBUS13      "	 345.000	     12	"LBUS12      "	 154.000	"1 "	:	"unknown     "	"  "	"  "	      0	0	 0.00000	 0.00000	 0.00000	0	0	 0.00000	0	0	 0.00000
	     19	"LBUS19      "	 345.000	     20	"LBUS20      "	 345.000	"1 "	:	"unknown     "	"  "	"  "	      0	0	 0.00000	 0.00000	 0.00000	0	0	 0.00000	0	0	 0.00000
	     19	"LBUS19      "	 345.000	     33	"GBUS33      "	  22.000	"1 "	:	"unknown     "	"  "	"  "	      0	0	 0.00000	 0.00000	 0.00000	0	0	 0.00000	0	0	 0.00000
	     20	"LBUS20      "	 345.000	     34	"GBUS34      "	  22.000	"1 "	:	"unknown     "	"  "	"  "	      0	0	 0.00000	 0.00000	 0.00000	0	0	 0.00000	0	0	 0.00000
	     22	"LBUS22      "	 345.000	     35	"GBUS35      "	  22.000	"1 "	:	"unknown     "	"  "	"  "	      0	0	 0.00000	 0.00000	 0.00000	0	0	 0.00000	0	0	 0.00000
	     23	"LBUS23      "	 345.000	     36	"GBUS36      "	  22.000	"1 "	:	"unknown     "	"  "	"  "	      0	0	 0.00000	 0.00000	 0.00000	0	0	 0.00000	0	0	 0.00000
	     25	"LBUS25      "	 345.000	     37	"GBUS37      "	  22.000	"1 "	:	"unknown     "	"  "	"  "	      0	0	 0.00000	 0.00000	 0.00000	0	0	 0.00000	0	0	 0.00000
	     29	"LBUS29      "	 345.000	     38	"GBUS38      "	  22.000	"1 "	:	"unknown     "	"  "	"  "	      0	0	 0.00000	 0.00000	 0.00000	0	0	 0.00000	0	0	 0.00000
gmdshunt data	[      0]	from	name	fromkv	id	(to)	(name)	(tokv)	(ck)	(sec)	:	xrratio	pwtype	rdcsh	rdcgrd
gictable	nvmag	nigic	iq(1) ... iq(nigic)
end
